1KQ
  ModelServer 0.9.12

 23 24  0  0  0  0  0  0  0  0999 V2000
   -6.0966    5.3594   15.7673 C   0  0  0  1  0  0  0  0  0  0  0  0
   -6.9989    4.4372   15.1498 C   0  0  0  1  0  0  0  0  0  0  0  0
   -8.0489    5.3038   15.5841 C   0  0  0  1  0  0  0  0  0  0  0  0
   -7.5181    3.1143   15.5623 C   0  0  0  1  0  0  0  0  0  0  0  0
   -6.7034    1.9380   15.0113 C   0  0  0  1  0  0  0  0  0  0  0  0
   -6.0699    3.4146   13.1120 C   0  0  0  1  0  0  0  0  0  0  0  0
   -7.0124    4.4815   13.6710 C   0  0  0  1  0  0  0  0  0  0  0  0
   -6.4998    0.9687   12.6934 C   0  0  0  1  0  0  0  0  0  0  0  0
   -7.1638    5.8368   16.5862 N   0  0  0  1  0  0  0  0  0  0  0  0
   -6.4299    2.0181   13.5322 N   0  0  0  1  0  0  0  0  0  0  0  0
   -6.7520   -0.1555   13.0855 O   0  0  0  1  0  0  0  0  0  0  0  0
   -5.6942    6.0926   15.0999 H   0  0  0  1  0  0  0  0  0  0  0  0
   -5.3000    4.8961   16.3111 H   0  0  0  1  0  0  0  0  0  0  0  0
   -8.9044    4.7958   15.9778 H   0  0  0  1  0  0  0  0  0  0  0  0
   -8.3631    6.0165   14.8504 H   0  0  0  1  0  0  0  0  0  0  0  0
   -8.5251    3.0219   15.2125 H   0  0  0  1  0  0  0  0  0  0  0  0
   -7.5053    3.0639   16.6310 H   0  0  0  1  0  0  0  0  0  0  0  0
   -7.2443    1.0352   15.2045 H   0  0  0  1  0  0  0  0  0  0  0  0
   -5.7653    1.9093   15.5252 H   0  0  0  1  0  0  0  0  0  0  0  0
   -5.0782    3.6261   13.4539 H   0  0  0  1  0  0  0  0  0  0  0  0
   -6.0975    3.4644   12.0436 H   0  0  0  1  0  0  0  0  0  0  0  0
   -6.6906    5.4474   13.3417 H   0  0  0  1  0  0  0  0  0  0  0  0
   -8.0060    4.2970   13.3192 H   0  0  0  1  0  0  0  0  0  0  0  0
  1  2  1  0  0  0  0
  1  9  1  0  0  0  0
  1 12  1  0  0  0  0
  1 13  1  0  0  0  0
  2  3  1  0  0  0  0
  2  4  1  0  0  0  0
  2  7  1  0  0  0  0
  3  9  1  0  0  0  0
  3 14  1  0  0  0  0
  3 15  1  0  0  0  0
  4  5  1  0  0  0  0
  4 16  1  0  0  0  0
  4 17  1  0  0  0  0
  5 10  1  0  0  0  0
  5 18  1  0  0  0  0
  5 19  1  0  0  0  0
  6  7  1  0  0  0  0
  6 10  1  0  0  0  0
  6 20  1  0  0  0  0
  6 21  1  0  0  0  0
  7 22  1  0  0  0  0
  7 23  1  0  0  0  0
  8 10  1  0  0  0  0
  8 11  2  0  0  0  0
M  END
