4j1p_ligand
     RDKit          3D

 49 51  0  0  0  0  0  0  0  0999 V2000
   14.6440   21.1740   -7.3220 O   0  0  0  0  0  0  0  0  0  0  0  0
   15.5990   22.0630   -6.7600 C   0  0  1  0  0  0  0  0  0  0  0  0
   13.3830   20.9680   -6.7720 C   0  0  0  0  0  0  0  0  0  0  0  0
   12.5570   20.0280   -7.3700 C   0  0  0  0  0  0  0  0  0  0  0  0
   11.2780   19.7580   -6.8560 C   0  0  0  0  0  0  0  0  0  0  0  0
    9.2530   20.9160   -3.9750 N   0  0  0  0  0  0  0  0  0  0  0  0
   10.6410   18.4200   -8.8420 C   0  0  1  0  0  0  0  0  0  0  0  0
   10.4250   18.8650   -7.5080 O   0  0  0  0  0  0  0  0  0  0  0  0
   10.8440   20.4260   -5.6910 C   0  0  0  0  0  0  0  0  0  0  0  0
    8.6730   24.6180    1.2550 O   0  0  0  0  0  0  0  0  0  0  0  0
   11.2690   22.1220   -4.0510 N   0  0  0  0  0  0  0  0  0  0  0  0
    9.6120   20.1700   -5.0500 C   0  0  0  0  0  0  0  0  0  0  0  0
   10.0640   21.8960   -3.4810 C   0  0  0  0  0  0  0  0  0  0  0  0
    7.1580   25.0540    3.6040 O   0  0  0  0  0  0  0  0  0  0  0  0
    8.8440   19.2440   -5.4290 O   0  0  0  0  0  0  0  0  0  0  0  0
    9.6860   22.6720   -2.2910 C   0  0  0  0  0  0  0  0  0  0  0  0
    8.3460   22.7810   -1.9040 C   0  0  0  0  0  0  0  0  0  0  0  0
    7.9980   23.4440   -0.7310 C   0  0  0  0  0  0  0  0  0  0  0  0
    6.5620   23.4780   -0.2860 C   0  0  1  0  0  0  0  0  0  0  0  0
    9.0050   24.0370    0.0440 C   0  0  0  0  0  0  0  0  0  0  0  0
    8.8530   23.8630    2.4440 C   0  0  2  0  0  0  0  0  0  0  0  0
    8.5140   24.7140    3.6450 C   0  0  2  0  0  0  0  0  0  0  0  0
   10.3440   24.0040   -0.3690 C   0  0  0  0  0  0  0  0  0  0  0  0
   11.4230   24.6530    0.4500 C   0  0  2  0  0  0  0  0  0  0  0  0
   10.6790   23.3080   -1.5290 C   0  0  0  0  0  0  0  0  0  0  0  0
   11.6790   21.4160   -5.1260 C   0  0  0  0  0  0  0  0  0  0  0  0
   12.9350   21.6760   -5.6540 C   0  0  0  0  0  0  0  0  0  0  0  0
   15.8490   21.7550   -5.7230 H   0  0  0  0  0  0  0  0  0  0  0  0
   16.5250   22.0290   -7.3690 H   0  0  0  0  0  0  0  0  0  0  0  0
   15.2100   23.1030   -6.7730 H   0  0  0  0  0  0  0  0  0  0  0  0
   12.9300   19.5150   -8.2450 H   0  0  0  0  0  0  0  0  0  0  0  0
    8.3620   20.6610   -3.4970 H   0  0  0  0  0  0  0  0  0  0  0  0
   10.7100   19.2880   -9.5330 H   0  0  0  0  0  0  0  0  0  0  0  0
   11.5610   17.8010   -8.8980 H   0  0  0  0  0  0  0  0  0  0  0  0
    9.7820   17.7920   -9.1540 H   0  0  0  0  0  0  0  0  0  0  0  0
    6.7810   24.6370    2.7850 H   0  0  0  0  0  0  0  0  0  0  0  0
    7.5520   22.3680   -2.5090 H   0  0  0  0  0  0  0  0  0  0  0  0
    6.3160   24.4650    0.1590 H   0  0  0  0  0  0  0  0  0  0  0  0
    5.8720   23.3120   -1.1410 H   0  0  0  0  0  0  0  0  0  0  0  0
    6.3910   22.6850    0.4710 H   0  0  0  0  0  0  0  0  0  0  0  0
    9.9080   23.5250    2.5310 H   0  0  0  0  0  0  0  0  0  0  0  0
    8.1960   22.9660    2.4250 H   0  0  0  0  0  0  0  0  0  0  0  0
    8.7080   24.1320    4.5710 H   0  0  0  0  0  0  0  0  0  0  0  0
    9.1550   25.6250    3.6690 H   0  0  0  0  0  0  0  0  0  0  0  0
   11.8410   23.9170    1.1670 H   0  0  0  0  0  0  0  0  0  0  0  0
   11.0330   25.5300    1.0090 H   0  0  0  0  0  0  0  0  0  0  0  0
   12.2440   25.0150   -0.2050 H   0  0  0  0  0  0  0  0  0  0  0  0
   11.7210   23.2420   -1.8200 H   0  0  0  0  0  0  0  0  0  0  0  0
   13.5530   22.4290   -5.1820 H   0  0  0  0  0  0  0  0  0  0  0  0
  1  2  1  0
  3  1  1  0
  4  3  4  0
  3 27  4  0
  5  4  4  0
  5  8  1  0
  9  5  4  0
  6 12  4  0
 13  6  4  0
  8  7  1  0
 12  9  4  0
 26  9  4  0
 10 20  1  0
 21 10  1  0
 13 11  4  0
 11 26  4  0
 12 15  2  0
 16 13  1  0
 22 14  1  0
 17 16  4  0
 16 25  4  0
 18 17  4  0
 18 19  1  0
 20 18  4  0
 20 23  4  0
 21 22  1  0
 23 24  1  0
 23 25  4  0
 26 27  4  0
  2 28  1  1
  2 29  1  0
  2 30  1  0
  4 31  1  0
  6 32  1  0
  7 33  1  6
  7 34  1  0
  7 35  1  0
 14 36  1  0
 17 37  1  0
 19 38  1  1
 19 39  1  0
 19 40  1  0
 21 41  1  1
 21 42  1  0
 22 43  1  1
 22 44  1  0
 24 45  1  1
 24 46  1  0
 24 47  1  0
 25 48  1  0
 27 49  1  0
M  END
$$$$
